384
Lattice="14.3208 0.0 0.0 -7.1604 12.402 0.0 0.0 0.0 30.0" Properties=species:S:1:pos:R:3
 Li       -5.887000       10.240000        3.368000
 Li        4.559000       10.749000        3.192000
 Li        6.689000       11.267000        4.595000
 Li       12.203000        2.270000        4.561000
 Li       10.185000        1.208000        3.328000
 Li        8.543000        4.230000        3.401000
 Li        4.882000        4.137000        3.322000
 Li        4.902000        2.243000        4.919000
 Li        6.459000        5.074000        4.674000
 Li        6.747000        7.321000        3.283000
 Li        8.398000        2.168000        4.775000
 Li        8.546000        8.328000        4.842000
 Li        0.965000        4.554000        3.184000
 Li       10.265000        5.789000        4.881000
 Li        3.170000        5.199000        4.832000
 Li        3.631000        1.360000        3.000000
 N        10.276000        3.074000        4.086000
 N         8.504000        0.146000        4.128000
 N        12.011000        0.101000        4.451000
 N         6.707000        3.241000        4.115000
 N         5.005000        6.333000        4.203000
 N         3.255000        3.150000        4.132000
 N         8.289000        6.178000        4.411000
 N         4.716000        0.011000        4.352000
 N        -5.922400       12.345200        4.301000
 N         6.761000        9.277000        4.172000
 H         5.263000        0.195000        3.488000
 H         1.366000        0.907000        3.938000
 H         2.263000        2.873000        3.999000
 H        12.405000        0.387000        3.533000
 H         7.752000        0.664000        3.633000
 H        10.214000        3.642000        4.954000
 H         8.726000        6.435000        3.504000
 H         4.082000        6.776000        4.016000
 H         5.907000        9.134000        3.601000
 H         6.591000        2.218000        3.968000
 Li       -2.423000        4.292000        3.395000
 Li        1.257000       10.514000        3.378000
 Li        2.883000       11.607000        4.757000
 Li       -2.163000       10.336000        3.310000
 Li       -4.150000       11.275000        4.404000
 Li       -0.473000       11.904000        4.841000
 Li        1.671000        8.282000        4.736000
 Li       -0.719000        5.334000        4.725000
 Li       -2.379000        8.357000        4.848000
 Li        4.806000        8.329000        4.992000
 Li       -0.545000        7.378000        3.384000
 N         3.209000        9.607000        4.278000
 N        -0.383000        9.329000        4.089000
 N         1.142000        6.229000        4.391000
 N        -2.243000        6.358000        4.125000
 N        -0.521000        3.418000        4.130000
 N        -4.058000        9.420000        4.104000
 H         1.698000        6.509000        3.558000
 H        -3.008000        6.882000        3.656000
 H        -0.703000        9.529000        5.056000
 H        -0.053000        2.496000        4.019000
 H        -4.069000        8.424000        3.816000
 H         3.383000        8.778000        3.671000
 Li       -3.997230        8.979220       19.795000
 N        -0.472316        7.104830       19.696699
 H        -0.170248        7.297600       20.767900
 Li        5.372040        2.417540        9.788300
 Li       -0.412417        0.764087        5.181480
 Li       -0.754227        3.038210       20.597401
 Li       -5.896000       11.535400        6.494280
 Li        8.475170        2.169770       13.925100
 Li        2.834690        5.815930       11.464400
 Li       -2.148220        6.281850       20.045601
 Li       -0.476142        9.116220       19.899900
 Li       10.333400        5.323690        9.322120
 Li        4.923090        6.067630        6.462910
 Li        3.089880        0.910038       12.855900
 Li        1.268110        2.061500        9.090420
 Li        3.566050        5.932610        8.904310
 Li       -2.121930        4.176050       17.515499
 N         3.037420        1.263700       10.030000
 N        -0.021108        1.050840       10.108100
 N        -5.638300       12.284400       13.075400
 N         5.086400        0.278979       13.667100
 N         2.943400        2.757310       13.443100
 N        -0.483298        0.985409       20.294600
 N         1.288360        1.821180       16.632099
 N        -0.711204        3.151120       12.912300
 N        -0.316715        5.101860       16.915600
 H        13.479000        0.403122       10.266100
 H         3.510560        2.133240       10.078000
 H        -2.444930       11.775600       13.436300
 H        -6.366720       12.355600       13.767200
 H         2.588580        3.545600       14.016100
 H        -0.492221        3.900120       13.677900
 H         1.233660        2.011460       17.657400
 H        -1.007520        5.737660       16.488400
 H        13.603300        1.135320       21.360399
 Li        1.988100        4.143810        8.042100
 Li        7.315170        4.743270       14.536900
 Li        6.554260        3.135840        6.570700
 Li        4.940280        6.419220       11.091800
 Li        0.920581        8.741830       10.154000
 Li       -2.621120       12.273700       15.640600
 Li       -0.016114        7.170220        7.959180
 Li        9.206440        2.046560        9.206210
 Li        6.909180       11.455200       19.223200
 Li        1.363020       10.971900       15.137800
 Li        5.103120        4.253200        8.088660
 Li       10.299800        3.282550       20.129200
 Li        4.840050        6.432680       15.832400
 Li       -4.312920        9.050790        6.610900
 Li       10.372800        2.761830        6.720900
 Li       -2.133970        8.269030       18.831499
 Li       12.270200        1.964990       19.051001
 Li        1.630290        0.157035       10.830900
 Li        3.250800        9.477810        6.495520
 Li       10.164800        2.725010       11.120000
 Li       11.919200        2.516720       13.710200
 Li        9.829630        5.205040       18.805500
 Li        8.899930        4.166820        7.940250
 Li        3.594390        9.289870       11.075400
 Li       -0.837117        9.324550       15.663400
 Li        4.596650        0.224381        6.234220
 Li        1.118130       10.524700        8.373110
 Li        8.339320        6.198200       20.360100
 N         6.825230       11.222900        7.285860
 N         6.854290        9.047690       13.358200
 N         5.277200       10.237400       10.414900
 N         6.536500        6.954110       10.364200
 N         8.447430        5.970300       13.198900
 N         8.298420        8.278250       16.841400
 N         4.597740        6.298270       13.483600
 N         6.681960       11.346100       16.837999
 N         3.094800       11.470400       16.175200
 N         3.365870        9.491210       13.310600
 N         5.060390        8.246440       16.248899
 N         4.967230       10.282300       19.279499
 N         0.870152        8.037670       16.458401
 H         6.417430       12.082800        7.625850
 H         6.047570        9.936010        9.750150
 H         7.385050        7.249840        9.725970
 H         8.402960        7.112780       13.224700
 H         5.491950        5.772610       13.428900
 H         7.237020       10.015100       13.574100
 H         3.025120        9.250900       14.238700
 H         4.364710        8.909170       15.744200
 H         1.370350        8.796090       15.905500
 H         3.875560       11.034600       15.625100
 H         9.124360        7.814240       16.409201
 H         6.695040       10.901100       15.889200
 H         5.081330        9.446540       19.818600
 Li        8.516530        7.898490       18.702101
 Li        5.135540        8.216110       14.156800
 Li        6.327670        8.808940       11.386900
 Li        2.533880        1.259560        5.261810
 Li       -2.841520        6.635340       15.159700
 Li        1.027020        3.704730        5.432830
 Li        4.237290        3.538430       12.428200
 Li       -4.086660       11.235200       19.183599
 Li        5.057850       12.016600       20.076799
 Li        1.771610        6.646930        5.985670
 N         5.105110       12.314200       12.881700
 N        11.699900        2.169130       17.006701
 N         8.644110        0.180043       13.690100
 N        10.044800        3.228770       13.248200
 N        10.571500        1.047660       10.406400
 H        11.097800        0.823537        9.595140
 H        12.316000        0.045786       14.000700
 H         1.431960       12.204700       12.666900
 H        10.501200        4.142500       13.215600
 H        10.789000        2.361200       17.611401
 Li        8.524520        6.142860        6.286370
 Li       -0.618735        5.135610       18.811600
 Li        1.672170        9.878870       12.445800
 Li        3.526190        3.332080        6.392020
 Li        9.829600        5.536100       14.189700
 Li        1.352550       10.239400        5.871890
 Li       10.356700        2.972950       15.850100
 Li       -0.594764        2.140000        8.127860
 Li       -0.211702        0.934862       17.501699
 N        -5.566980       10.399800       10.392200
 N        -3.997110        9.248180       13.353600
 N        -4.100660       11.316800       16.217600
 N        -2.673510        8.510910       16.445101
 N        -5.788580       10.270500       19.566099
 H         7.988790        9.695930       10.287200
 H        -3.476350        8.629730       12.729000
 H        -1.756330        8.134810       16.436800
 H        -4.092150       10.610700       16.992100
 H         8.610680        9.741110       20.450600
 Li        4.057350       11.698400       10.951500
 Li        3.086930        7.326280       16.751900
 Li        8.017280        9.652800        8.478530
 Li        3.216990       10.724200       19.728201
 Li       -0.211201       11.684500        9.847520
 Li        8.456550        6.093510       16.170601
 Li       -2.037380        8.341500        9.709180
 Li        4.981170        0.382398       11.072600
 Li        2.018130        2.499550       11.527100
 Li        3.113960        1.446280        7.925750
 Li        5.134710        8.166830        9.059500
 Li        8.804610        5.919950       11.054100
 Li        6.649550        9.520830        6.365560
 Li       -4.343700       11.166500       13.809600
 Li        6.824020        9.335720       19.868500
 Li        5.203590       10.507000        8.291820
 Li        8.493680        0.292346       15.786100
 Li        6.894370        1.175670        8.076690
 N         6.779380        5.333230        6.904740
 N         4.940280        2.123950        7.045360
 N         8.458290        2.265260        7.080830
 H         7.770520        1.600140        6.525710
 H         5.006200        1.292510        7.736760
 H         6.750340        5.137470        7.871840
 Li       -1.991100        8.285640       13.873500
 Li        1.479910        0.080649       15.795400
 Li       12.137400        0.336136       16.106199
 Li        8.219670        4.135970        5.973360
 Li       -6.691710       11.740800        9.201590
 Li        6.821150        0.948863       12.587100
 N         0.145738       11.164600       16.559900
 N         1.156490       10.232500       19.648899
 N        -2.244820       10.195400       19.392599
 H        -0.769797       11.533600       16.622900
 H         1.420180        9.825380       20.570700
 H        -2.188450       10.110100       20.389799
 Li       -0.383146        9.267840        7.263810
 Li       -3.477600        6.826130       12.256800
 N        -2.367760        4.198380       19.781401
 H        -2.415030        4.413380       20.778799
 Li       -5.851420       12.032200       20.845900
 Li        3.091490       11.666800       13.828700
 Li       -5.536290       10.296200       12.297100
 Li        4.979550        3.913960       17.459900
 Li        2.979600        2.892130       19.062799
 Li       -2.888940       10.251300        5.802380
 Li       -0.963422       10.387300       11.729900
 Li       10.767900        1.069090       12.493900
 Li        1.050700        6.156680       10.937300
 Li        4.781280        8.091100       18.392900
 Li       -0.781179        3.259430        6.126370
 Li        6.471430        2.970970       20.172300
 Li        4.930800       11.148700        5.937550
 Li        8.663780        4.181900       17.064400
 Li       -2.146820        4.253230       12.225600
 Li       -0.569078        6.564870       12.768700
 Li        1.273780        4.262560       17.241501
 Li       -0.442656       11.148800       18.774300
 Li       -2.287890        4.400090        7.484600
 N         6.569050        3.014240       13.684800
 N        10.451900        5.206850       16.566799
 N         6.761910        5.364240       16.790800
 N         8.430390        2.264630       16.654100
 N        10.305100        0.560181       19.651100
 N         8.468460        4.203670       19.755699
 N         6.578440        1.069260       19.435301
 N         4.882560        1.864460       16.592501
 N        -3.950620        7.121870       19.511499
 N         4.795860        3.975290       19.413799
 N         1.256960        3.820640       19.521900
 N         3.146210        0.895503       19.398300
 N         6.631970        7.349860       19.510099
 N         3.073610        6.948640       19.374399
 N         2.994940        5.480250       16.186800
 H         6.018910        3.788250       14.076400
 H         7.430620        2.631420       16.455000
 H         4.862590        0.929965       17.120800
 H         6.506050        4.500620       16.394400
 H         6.680400        0.716236       20.449301
 H         3.529820        4.539950       16.423201
 H         4.270400        3.854690       20.278700
 H         1.717660        3.674600       20.579700
 H         3.766390        7.501910       19.957001
 H         3.848060        0.904514       20.180401
 H        11.267200        4.842550       15.897700
 H         8.512500        3.982640       20.786301
 H        -3.755970        6.998390       20.596399
 H        10.387800        0.909836       20.586000
 H         6.707530        7.365430       20.560200
 Li        2.994520        5.455970       14.357600
 Li        4.636980        2.133590       14.020700
 Li        8.632330        4.119470       12.517000
 Li        6.882860        8.827840       15.194400
 Li       -0.193460        7.734760        5.457550
 Li        6.728910        6.701100       12.637000
 Li        2.958230        2.437960       15.997800
 Li       -3.639680        9.628610       15.322200
 Li        6.940430        7.450200        7.470130
 Li       -0.605682        1.142340       12.650200
 Li       -0.568829        3.115420       15.594900
 Li        0.610271        9.230270       17.762600
 Li        7.006100        1.047480       17.719700
 Li       -3.778860       11.621900        9.291000
 Li       -2.328550       10.188100       17.434000
 Li       -0.276483        5.132500        8.789220
 Li       -2.408110        6.474040        6.149550
 Li       -0.107070        3.459570       10.978000
 Li        6.590260        7.263910       17.137501
 Li       -5.809000       10.344500       17.072901
 Li        6.640250        9.370500       17.393801
 Li        5.083530        2.006220       18.691401
 Li        1.204230        5.806150       15.630700
 Li        8.717940        8.238530       11.250200
 Li        6.202910        2.078890       15.273600
 Li        5.110150       10.358100       12.825800
 Li        6.669040        5.130420        9.976040
 Li       -2.109390       12.311800       19.263599
 Li        9.131470        0.351711        6.498320
 Li        3.307020        5.469080       18.310699
 Li        0.537524        6.726300       17.915800
 Li        8.788090        2.214590       18.664200
 Li        0.780828        7.737000       14.592300
 Li        1.638000        5.890330       20.086500
 Li        4.685100       10.380800       16.893200
 Li        9.070490        0.236551       10.551400
 Li        1.195360        4.225480       12.759300
 Li        2.710460        0.495876       17.708799
 Li       -1.898030        6.026510       10.383300
 Li        2.429120        8.601730       19.420000
 Li       -3.608450        7.088450       17.519600
 Li       12.321900        1.853320       10.235200
 Li        4.800140        5.896100       19.850700
 Li       -0.506122       11.546600       13.948000
 Li        1.358550       12.275000       19.766600
 Li        3.276140        7.484090       13.006700
 Li        6.706240        7.053270        5.496130
 N         3.383920        5.175220        7.275100
 N         3.240140        7.312320       10.237200
 N         1.367650        8.376600        6.755030
 N        -0.581972        5.492610        6.948120
 N         5.163460        8.525930        7.092950
 N         1.545580        2.456940        7.100940
 N         1.369050        4.288740       10.351400
 N         4.943910        4.276650       10.491700
 N         3.170110       11.343700        6.570980
 N        -0.260653        7.224480       10.104900
 N        -2.280700        8.605030        6.815990
 N        -0.357343        9.450590       13.460400
 N        -2.203390       10.537100       10.091700
 N         1.658500       10.665100       10.463100
 N        -0.152129       11.241100        7.378850
 N        -4.049520       11.357400        6.803020
 N        -1.988040        4.122740        9.724890
 N        -2.175930        6.250660       13.321900
 N         1.434170        6.190570       13.080700
 H         1.438050        1.451210        6.582860
 H         0.434050        5.535390        6.877480
 H        -2.373870        7.981020        7.661210
 H        -4.289400       10.597200        7.465090
 H        11.477200        3.466770        9.291170
 H         4.298440        8.142050        6.808610
 H         1.885040        8.093690        7.635150
 H         3.388560       11.130700        7.634810
 H         2.520890        4.868150        6.609810
 H         3.974360        3.839520       10.594900
 H         2.316550        3.949410        9.950610
 H         2.531020        7.511520        9.459580
 H        -1.067900       11.534300        6.976960
 H         2.476020       10.517900        9.814880
 H        -2.567440       11.122300       10.850300
 H        -0.527887        7.868280       10.822600
 H         1.386510        7.228020       12.943500
 H        -2.094990        5.427840       13.801100
 H        -0.346417        8.839240       12.617900
 Li       -3.637480        9.261290       10.624700
 Li        1.816750       11.099800       17.682699
 Li        8.835100        8.560260       14.155000
 Li       -2.145200       10.308600        7.936980
 Li        1.426260        1.783620       14.120200
 Li        6.472000        3.523270       11.861200
 Li       10.290700        0.655788       17.527399
 Li        1.358110        1.977660       19.775600
 Li        7.095000        5.274640       18.689100
 Li       11.469500        0.642914        6.170540
 N        12.300700        2.034040        6.830660
 N        -3.893880        7.247860       10.287900
 N         8.467370        8.241420        6.925830
 N        10.265900        5.089370        6.896100
 N         8.624710        4.183840       10.042800
 H        11.974600        1.733010        7.775380
 H         8.889580        7.732350        7.729460
 H         9.970270        5.864670        7.474800
 H         7.924580        3.632700        9.484350
 H         9.915500        7.418000        9.296670
 Li        6.553190       11.443000       11.476500
 N         6.912270        1.113120       10.357600
 H         7.574020        1.815700       10.695100
